# System definition
read_data graphene_single_layer_x-45_y-45_795_C.data  ### MODIFY FILE NAME ###
Reading data file ...
  orthogonal box = (-1.4464652 -1.4423034 -1.42) to (47.285152 47.149102 1.42)
  reading atoms ...
  795 atoms
  reading velocities ...
  795 velocities
pair_style lj/cut 6
pair_coeff      1 1 0.066047 3.4

# Virtual force wall to keep the cylinder shape
#region myCylinder cylinder z 0. 0. 20.3 -22.079997 505.920003 units box
#fix wall all wall/region myCylinder lj93 1.0 1.0 2.5

# Minimization
timestep 0.25
thermo 100
thermo_style custom step temp press vol lx density pe etotal
dump 2 all custom 1000 graphene_single_layer_LJ_795C_after_temp_200K.lammpstrj id type x y z ### MODIFY FILE NAME ###
min_style cg
minimize 1.0e-6 1.0e-6 100 1000
Generated 0 of 0 mixed pair_coeff terms from geometric mixing rule
  update every 1 steps, delay 0 steps, check yes
Step          Temp          Press          Volume           Lx          Density         PotEng         TotEng
0   923            3.5764745e+08  6724.9433      48.731617      2.3577398      8739313.6      8741498.1
Loop time of 0.0251909 on 64 procs for 100 steps with 795 atoms

Minimization stats:
  Stopping criterion = max iterations
  Energy initial, next-to-last, final =
  Force two-norm initial, final = 757147.49 28301.772
  Force max component initial, final = 127132.22 7330.8006
  Final line search alpha, max atom move = 9.6526089e-06 0.070761352
  Iterations, force evaluations = 100 123

#timestep 0.25
fix 1 all nvt temp 200.0 200.0 $(100.0*dt) ### MODIFY INITIAL TEMP, FINAL TEMP ###
fix 1 all nvt temp 200.0 200.0 25
run 400000
Generated 0 of 0 mixed pair_coeff terms from geometric mixing rule
Step          Temp          Press          Volume           Lx          Density         PotEng         TotEng
100   923            47390520       6724.9433      48.731617      2.3577398      1146833.4      1149017.9
Averages over the last 2001 of 4001 rows, steps 200100 to 400100:
Temp Press Volume Lx Density PotEng TotEng
200.051 6.71077e+06 6724.94 48.7316 2.35774 156195 156668
Loop time of 25.3022 on 64 procs for 400000 steps with 795 atoms

write_data graphene_single_layer_LJ_795C_after_temp_200K.data ### MODIFY FILE NAME ###
System init for write_data ...
Generated 0 of 0 mixed pair_coeff terms from geometric mixing rule
