# System definition
read_data graphene_single_layer_test_time_9-9_real_charge.data
Reading data file ...
  orthogonal box = (-2 -2 -2) to (11 11 2)
  reading atoms ...
  40 atoms

pair_style reax/c NULL
pair_coeff * * ffield.reax.cho C
Reading potential file ffield.reax.cho with DATE: 2011-02-18
fix qeq_reax all qeq/reax 1 0.0 10.0 1.0e-6 reax/c

# Minimization
timestep 1
min_style cg
thermo 100
thermo_style custom step temp press vol lx density pe etotal
dump 2 all custom 1000 graphene_single_layer_ReaxFF_40_C.lammpstrj id type x y z
minimize 1.0e-6 1.0e-6 100 1000

CITE-CITE-CITE-CITE-CITE-CITE-CITE-CITE-CITE-CITE-CITE-CITE-CITE

Your simulation uses code contributions which should be cited:

- pair reaxff command:

@Article{Aktulga12,
 author = {H. M. Aktulga, J. C. Fogarty, S. A. Pandit, A. Y. Grama},
 title = {Parallel reactive molecular dynamics: Numerical methods and algorithmic techniques},
 journal = {Parallel Computing},
 year =    2012,
 volume =  38,
 pages =   {245--259}
}

- fix qeq/reaxff command:

@Article{Aktulga12,
 author = {H. M. Aktulga, J. C. Fogarty, S. A. Pandit, A. Y. Grama},
 title = {Parallel reactive molecular dynamics: Numerical methods and algorithmic techniques},
 journal = {Parallel Computing},
 year =    2012,
 volume =  38,
 pages =   {245--259}
}

CITE-CITE-CITE-CITE-CITE-CITE-CITE-CITE-CITE-CITE-CITE-CITE-CITE

  update every 1 steps, delay 0 steps, check yes
Step Temp Press Volume Lx Density PotEng TotEng
0            0     285703.9          676           13    1.1801322   -6221.1328   -6221.1328
Loop time of 11.8541 on 1 procs for 99 steps with 40 atoms

Minimization stats:
  Stopping criterion = energy tolerance
  Energy initial, next-to-last, final =
  Force two-norm initial, final = 1040.2046 319.62646
  Force max component initial, final = 272.88819 172.25296
  Final line search alpha, max atom move = 3.6183167e-05 0.0062326578
  Iterations, force evaluations = 99 770

fix 1 all nvt temp 50.0 50.0 $(100.0*dt)
fix 1 all nvt temp 50.0 50.0 100
run 50000
Step Temp Press Volume Lx Density PotEng TotEng
99            0    37012.879          676           13    1.1801322   -6789.2155   -6789.2155
Averages over the last 251 of 502 rows, steps 25100 to 50099:
Temp Press Volume Lx Density PotEng TotEng
131.471 -10462.4 676 13 1.18013 -6900.32 -6885.03
Loop time of 743.783 on 1 procs for 50000 steps with 40 atoms

write_data graphene_single_layer_ReaxFF_40_C.data
System init for write_data ...
