# System definition
read_data graphene_single_layer_x-45_y-45_795_C.data
Reading data file ...
  orthogonal box = (-51 -51 -51) to (96 96 51)
  reading atoms ...
  795 atoms
pair_style lj/cut 6
pair_coeff      1 1 0.066047 3.4

# Virtual force wall to keep the cylinder shape
#region myCylinder cylinder z 0. 0. 20.3 -22.079997 505.920003 units box
#fix wall all wall/region myCylinder lj93 1.0 1.0 2.5

# Minimization
timestep 0.25
thermo 100
thermo_style custom step temp press vol lx density pe etotal
dump 2 all custom 1000 graphene_single_layer_LJ_795C_after_temp_100K.lammpstrj id type x y z
min_style cg
minimize 1.0e-6 1.0e-6 100 1000
  generated 0 of 0 mixed pair_coeff terms from geometric mixing rule
  update every 1 steps, delay 0 steps, check yes
Step Temp Press Volume Lx Density PotEng TotEng
0            0    1335313.5      2204118          147  0.007193656     10699602     10699602
Loop time of 0.0619872 on 1 procs for 100 steps with 795 atoms

Minimization stats:
  Stopping criterion = max iterations
  Energy initial, next-to-last, final =
  Force two-norm initial, final = 694694.42 29375.63
  Force max component initial, final = 79169.705 9280.0147
  Final line search alpha, max atom move = 3.8811533e-05 0.36017159
  Iterations, force evaluations = 100 117

#timestep 0.25
fix 1 all nvt temp 100.0 100.0 $(100.0*dt)
fix 1 all nvt temp 100.0 100.0 25
run 400000
  generated 0 of 0 mixed pair_coeff terms from geometric mixing rule
Step Temp Press Volume Lx Density PotEng TotEng
100            0     61841.43      2204118          147  0.007193656    488621.59    488621.59
Averages over the last 2001 of 4001 rows, steps 200100 to 400100:
Temp Press Volume Lx Density PotEng TotEng
99.9511 9.04278 2.20412e+06 147 0.00719366 -28.6448 207.916
Loop time of 23.8163 on 1 procs for 400000 steps with 795 atoms

write_data graphene_single_layer_LJ_795C_after_temp_100K.data
System init for write_data ...
  generated 0 of 0 mixed pair_coeff terms from geometric mixing rule
